&NAMP
 DIR="tests/test_2                                                                                                                    ",
 AL_I=  0.0000000000000000     ,
 AL_F=  10.000000000000000     ,
 NSA=0                   ,
 XA1= 0.64000000000000001     ,
 XA2= 0.71999999999999997     ,
 XA3=  2.0000000000000000     ,
 XB= 0.65000000000000002     ,
 XDA1=  2.5000000000000001E-002,
 XDA2=  2.5000000000000001E-002,
 RM_I=  0.0000000000000000     ,
 RM_F=  0.0000000000000000     ,
 NSR=0                   ,
 CM_I=  100.00000000000000     ,
 CM_F=  100000.00000000000     ,
 NSO=20                  ,
 EDR= 0.10000000000000001     ,
 XE1= 0.69999999999999996     ,
 XDE1=  2.5000000000000001E-002,
 X_IN= 0.57999999999999996     ,
 C3=  0.0000000000000000     ,
 BCT=  1.0000000000000000     ,
 ACCU=  1.0000000000000000E-003,
 ANS1="H2      ",
 ANS2="D       ",
 ANS3="VR      ",
 ANS4="V       ",
 S0= 0.84999999999999998     ,
 S2=  8.0000000000000002E-002,
 S4=  0.0000000000000000     ,
 S6=  0.0000000000000000     ,
 A2P=  1.0000000000000000     ,
 A4P=  0.0000000000000000     ,
 MMM=  0.0000000000000000     ,
 HD=  1.0000000000000000     ,
 SR=  1.0000000000000000     ,
 ROTP=  1.0000000000000000     ,
 GD=  1.2000000000000000     ,
 AQU=  1.0000000000000000     ,
 FLG=  0.0000000000000000     ,
 DD1=  5.0000000000000003E-002,
 RC1= 0.69999999999999996     ,
 RC2= 0.20000000000000001     ,
 OCO= 0.90000000000000002     ,
 XM=-0.45000000000000001     ,
 BETA_I=  0.0000000000000000     ,
 BETA_F=  0.0000000000000000     ,
 BETA_S= 0.10000000000000001     ,
 ZETA_R=  1.0000000000000000     ,
 FFREE=  0.0000000000000000     ,
 XBT= 0.75000000000000000     ,
 XBO=  1.5000000000000000     ,
 /
